@<TRIPOS>MOLECULE
****
45 48 1 0 0
SMALL
USER_CHARGES


@<TRIPOS>ATOM
      1 C          -4.5012   -0.8515   -0.1285 C.2       1     ****    0.0000
      2 C          -4.8332    0.4264   -0.4750 C.2       1     ****    0.0000
      3 C          -5.4206   -1.8431   -0.2645 C.ar      1     ****    0.0000
      4 C          -3.2455   -1.1603    0.2812 C.ar      1     ****    0.0000
      5 C          -3.7609    1.3497   -1.0661 C.3       1     ****    0.0000
      6 C          -6.0888    0.9374   -0.3245 C.ar      1     ****    0.0000
      7 C          -5.4857   -2.9075    0.5619 C.ar      1     ****    0.0000
      8 C          -6.4126   -3.8682    0.4233 C.ar      1     ****    0.0000
      9 C          -7.3289   -3.8205   -0.5558 C.ar      1     ****    0.0000
     10 C          -7.2796   -2.7655   -1.3833 C.ar      1     ****    0.0000
     11 C          -6.3544   -1.8042   -1.2393 C.ar      1     ****    0.0000
     12 C          -6.4818    2.0860   -0.9192 C.ar      1     ****    0.0000
     13 C          -7.7114    2.6047   -0.7712 C.ar      1     ****    0.0000
     14 C          -8.6117    1.9971    0.0113 C.ar      1     ****    0.0000
     15 C          -8.2479    0.8793    0.6517 C.ar      1     ****    0.0000
     16 C          -7.0131    0.3783    0.4889 C.ar      1     ****    0.0000
     17 N          -3.5510    2.5588   -0.2506 N.ar      1     ****    0.0000
     18 C          -3.6144    2.6042    1.0133 C.ar      1     ****    0.0000
     19 N          -3.3961    3.7850    1.4157 N.ar      1     ****    0.0000
     20 C          -3.1973    4.4652    0.3633 C.ar      1     ****    0.0000
     21 C          -3.2902    3.6986   -0.7342 C.ar      1     ****    0.0000
     22 O          -8.2756   -4.7858   -0.7007 O.3       1     ****    0.0000
     23 C          -2.6600   -2.3733    0.3374 C.ar      1     ****    0.0000
     24 C          -1.3986   -2.1665    0.7314 C.ar      1     ****    0.0000
     25 C          -1.3296   -0.8395    0.8765 C.ar      1     ****    0.0000
     26 O          -2.4038   -0.3127    0.5951 O.2       1     ****    0.0000
     27 O          -0.2470   -0.1049    1.2361 O.3       1     ****    0.0000
     28 H          -2.7845    0.8638   -1.2733 H         1     ****    0.0000
     29 H          -4.0667    1.6116   -2.1053 H         1     ****    0.0000
     30 H          -4.8205   -2.9969    1.4368 H         1     ****    0.0000
     31 H          -6.4409   -4.7065    1.1403 H         1     ****    0.0000
     32 H          -8.0144   -2.6934   -2.2029 H         1     ****    0.0000
     33 H          -6.3716   -0.9906   -1.9852 H         1     ****    0.0000
     34 H          -5.8249    2.6608   -1.5890 H         1     ****    0.0000
     35 H          -7.9876    3.5364   -1.2941 H         1     ****    0.0000
     36 H          -9.6211    2.4203    0.1431 H         1     ****    0.0000
     37 H          -8.9627    0.3854    1.3318 H         1     ****    0.0000
     38 H          -6.7908   -0.5026    1.1113 H         1     ****    0.0000
     39 H          -3.8319    1.7451    1.6567 H         1     ****    0.0000
     40 H          -2.9820    5.5418    0.3840 H         1     ****    0.0000
     41 H          -3.1839    3.9322   -1.7975 H         1     ****    0.0000
     42 H          -8.8536   -4.5536   -1.4456 H         1     ****    0.0000
     43 H          -3.0611   -3.3606    0.0790 H         1     ****    0.0000
     44 H          -0.6029   -2.9055    0.8800 H         1     ****    0.0000
     45 H          -0.3726    0.8145    0.9490 H         1     ****    0.0000
@<TRIPOS>BOND
     1     1     2     2
     2     1     3     1
     3     1     4     1
     4     2     5     1
     5     2     6     1
     6     3     7     2
     7     3    11     1
     8     4    23     2
     9     4    26     1
    10     5    17     1
    11     5    28     1
    12     5    29     1
    13     6    12     2
    14     6    16     1
    15     7     8     1
    16     7    30     1
    17     8     9     2
    18     8    31     1
    19     9    10     1
    20     9    22     1
    21    10    11     2
    22    10    32     1
    23    11    33     1
    24    12    13     1
    25    12    34     1
    26    13    14     2
    27    13    35     1
    28    14    15     1
    29    14    36     1
    30    15    16     2
    31    15    37     1
    32    16    38     1
    33    17    18     1
    34    17    21     1
    35    18    19     2
    36    18    39     1
    37    19    20     1
    38    20    21     2
    39    20    40     1
    40    21    41     1
    41    22    42     1
    42    23    24     1
    43    23    43     1
    44    24    25     2
    45    24    44     1
    46    25    26     1
    47    25    27     1
    48    27    45     1
