REMARK  7 active torsions:
REMARK  status: ('A' for Active; 'I' for Inactive)
REMARK    1  A    between atoms: C_1  and  C_4 
REMARK    2  A    between atoms: C_1  and  C_3 
REMARK    3  A    between atoms: C_2  and  C_5 
REMARK    4  A    between atoms: C_2  and  C_6 
REMARK    5  A    between atoms: C_5  and  N_17 
REMARK    6  A    between atoms: C_9  and  O_22 
REMARK    7  A    between atoms: C_25  and  O_27 
ROOT
HETATM    1  C   ***     1     -10.384  48.913 332.627  1.00  0.00     0.017 C 
HETATM    2  C   ***     1     -11.346  48.649 331.695  1.00  0.00    -0.016 C 
ENDROOT
BRANCH   1   3
HETATM    3  C   ***     1     -10.679  49.595 333.762  1.00  0.00     0.090 A 
HETATM    4  C   ***     1      -9.833  50.221 334.604  1.00  0.00     0.043 A 
HETATM    5  C   ***     1     -10.593  50.812 335.533  1.00  0.00     0.067 A 
HETATM    6  C   ***     1     -11.839  50.494 335.168  1.00  0.00     0.183 A 
HETATM    7  O   ***     1     -11.833  49.811 334.146  1.00  0.00    -0.287 OA
BRANCH   6   8
HETATM    8  O   ***     1     -12.996  50.873 335.766  1.00  0.00    -0.341 OA
HETATM    9  H   ***     1     -13.728  50.789 335.133  1.00  0.00     0.220 HD
ENDBRANCH   6   8
ENDBRANCH   1   3
BRANCH   1  10
HETATM   10  C   ***     1      -9.097  48.552 332.382  1.00  0.00    -0.022 A 
HETATM   11  C   ***     1      -8.600  48.534 331.127  1.00  0.00     0.015 A 
HETATM   12  C   ***     1      -7.337  48.168 330.861  1.00  0.00     0.037 A 
HETATM   13  C   ***     1      -6.497  47.792 331.837  1.00  0.00     0.065 A 
HETATM   14  C   ***     1      -6.979  47.796 333.090  1.00  0.00     0.037 A 
HETATM   15  C   ***     1      -8.241  48.167 333.352  1.00  0.00     0.015 A 
BRANCH  13  16
HETATM   16  O   ***     1      -5.221  47.412 331.561  1.00  0.00    -0.361 OA
HETATM   17  H   ***     1      -5.078  47.453 330.601  1.00  0.00     0.217 HD
ENDBRANCH  13  16
ENDBRANCH   1  10
BRANCH   2  18
HETATM   18  C   ***     1     -12.519  49.622 331.527  1.00  0.00     0.169 C 
BRANCH  18  19
HETATM   19  N   ***     1     -13.821  48.977 331.773  1.00  0.00    -0.346 N 
HETATM   20  C   ***     1     -14.035  48.073 332.634  1.00  0.00     0.209 A 
HETATM   21  N   ***     1     -15.249  47.718 332.597  1.00  0.00    -0.255 NA
HETATM   22  C   ***     1     -15.778  48.428 331.688  1.00  0.00     0.135 A 
HETATM   23  C   ***     1     -14.878  49.255 331.135  1.00  0.00     0.111 A 
ENDBRANCH  18  19
ENDBRANCH   2  18
BRANCH   2  24
HETATM   24  C   ***     1     -11.320  47.550 330.888  1.00  0.00    -0.027 A 
HETATM   25  C   ***     1     -10.569  46.459 331.162  1.00  0.00     0.012 A 
HETATM   26  C   ***     1     -10.545  45.369 330.379  1.00  0.00     0.001 A 
HETATM   27  C   ***     1     -11.304  45.312 329.278  1.00  0.00     0.000 A 
HETATM   28  C   ***     1     -12.094  46.355 328.994  1.00  0.00     0.001 A 
HETATM   29  C   ***     1     -12.102  47.436 329.791  1.00  0.00     0.012 A 
ENDBRANCH   2  24
TORSDOF 7
